Distrib/IEEETestCases/ShortCircuitCases/123Bus/emetertest_VLN_Node.Txt

NODE-GROUND VOLTAGES BY BUS & NODE

Bus       Node    V (kV)    Angle      p.u.   Base kV

sourcebus  1     7.1851 /_   -0.1   0.99799    12.47
   -       2     7.1851 /_ -120.1   0.99799    12.47
   -       3     7.1851 /_  119.9   0.99799    12.47
loadbus .  1     7.0433 /_   -0.7    0.9783    12.47
   -       2     7.0433 /_ -120.7    0.9783    12.47
   -       3     7.0433 /_  119.3    0.9783    12.47
loadbus2   1     6.9723 /_   -1.0   0.96843    12.47
   -       2     6.9723 /_ -121.0   0.96843    12.47
   -       3     6.9723 /_  119.0   0.96843    12.47
